Circuit: *** SPICE deck for cell XOR_TWO_IN{lay} from library EE_4360_Final_Project


Date: Fri Apr 20 16:18:56 2018
Total elapsed time: 0.032 seconds.

tnom = 27
temp = 27
method = trap
totiter = 1028
traniter = 0
tranpoints = 0
accept = 0
rejected = 0
matrix size = 68
fillins = 44
solver = Normal
Thread vector: 12.3/4.6[6] 0.0/0.0[0] 0.8/1.0[1] 0.3/1.0[1]  2592/500
Matrix Compiler1: 5.98 KB object code size  2.3/1.1/[0.6]
Matrix Compiler2: 6.20 KB object code size  0.8/1.2/[0.4]

