Circuit: *** SPICE deck for cell XOR_TWO_IN{lay} from library EE_4360_Final_Project


Date: Wed Apr 25 07:28:16 2018
Total elapsed time: 0.225 seconds.

tnom = 27
temp = 27
method = trap
totiter = 1027
traniter = 0
tranpoints = 0
accept = 0
rejected = 0
matrix size = 68
fillins = 44
solver = Normal
Thread vector: 16.8/7.9[6] 0.0/0.0[0] 0.9/0.7[3] 0.4/0.6[1]  2592/500
Matrix Compiler1: 5.98 KB object code size  2.0/1.3/[0.8]
Matrix Compiler2: 6.20 KB object code size  0.8/1.3/[0.5]

