Circuit: *** SPICE deck for cell Eight_To_One_Mux{lay} from library EE_4360_Final_Project

WARNING: Node A is floating.
WARNING: Node B is floating.
WARNING: Node C is floating.
WARNING: Node D is floating.
WARNING: Node E is floating.
WARNING: Node F is floating.
WARNING: Node G is floating.
WARNING: Node H is floating.
WARNING: Node S_ONE_NOT##2 is floating.
WARNING: Node S_ONE##2 is floating.

Direct Newton iteration for .op point succeeded.

Date: Wed Apr 25 07:31:19 2018
Total elapsed time: 0.266 seconds.

tnom = 27
temp = 27
method = modified trap
totiter = 2150
traniter = 2138
tranpoints = 1060
accept = 1057
rejected = 3
matrix size = 68
fillins = 86
solver = Normal
Thread vector: 32.0/12.9[7] 13.2/4.4[7] 1.4/0.9[3] 0.5/1.5[1]  2592/500
Matrix Compiler1: 9.27 KB object code size  2.9/2.2/[1.2]
Matrix Compiler2: 7.84 KB object code size  1.3/1.9/[0.6]

